Version 4
SHEET 1 3360 2204
WIRE 304 240 304 192
WIRE -16 336 -64 336
WIRE 112 336 64 336
WIRE 128 336 112 336
WIRE 304 336 304 304
WIRE 304 336 208 336
WIRE 352 336 304 336
WIRE 1664 448 1664 432
WIRE 112 464 112 336
WIRE 272 464 112 464
WIRE 352 464 336 464
WIRE 1232 576 1232 544
WIRE 1456 576 1456 544
WIRE 880 592 880 560
WIRE -624 608 -624 544
WIRE 1664 656 1664 528
WIRE 1744 656 1664 656
WIRE 1872 656 1824 656
WIRE 1456 688 1456 656
WIRE 1456 688 1296 688
WIRE 880 704 880 672
WIRE 880 704 720 704
WIRE 320 720 320 672
WIRE 1456 720 1456 688
WIRE -624 736 -624 688
WIRE -512 736 -624 736
WIRE 880 736 880 704
WIRE -624 784 -624 736
WIRE 1776 800 1776 768
WIRE -352 816 -352 752
WIRE 0 816 -64 816
WIRE 128 816 80 816
WIRE 144 816 128 816
WIRE 320 816 320 784
WIRE 320 816 224 816
WIRE 368 816 320 816
WIRE 1376 816 1376 800
WIRE 1664 816 1664 656
WIRE 1744 816 1664 816
WIRE -944 832 -1280 832
WIRE 1296 832 1296 688
WIRE 1344 832 1296 832
WIRE 1872 832 1872 656
WIRE 1872 832 1808 832
WIRE 2096 832 1872 832
WIRE -944 848 -944 832
WIRE -672 848 -944 848
WIRE 720 848 720 704
WIRE 768 848 720 848
WIRE 1456 848 1456 800
WIRE 1456 848 1408 848
WIRE 1744 848 1456 848
WIRE -1280 864 -1280 832
WIRE 880 864 880 816
WIRE 880 864 832 864
WIRE 992 864 880 864
WIRE 1104 864 1056 864
WIRE 1136 864 1104 864
WIRE 1232 864 1232 656
WIRE 1232 864 1200 864
WIRE 1344 864 1232 864
WIRE 768 880 720 880
WIRE 880 912 880 864
WIRE -352 928 -352 896
WIRE 128 944 128 816
WIRE 288 944 128 944
WIRE 368 944 352 944
WIRE 1104 992 1104 864
WIRE 1248 992 1104 992
WIRE 1456 992 1456 848
WIRE 1456 992 1328 992
WIRE -624 1008 -624 880
WIRE -624 1008 -912 1008
WIRE -576 1008 -624 1008
WIRE -1280 1072 -1280 944
WIRE -1280 1184 -1280 1152
WIRE -912 1184 -912 1008
WIRE -912 1184 -1280 1184
WIRE 320 1216 320 1168
WIRE -16 1312 -80 1312
WIRE 112 1312 64 1312
WIRE 128 1312 112 1312
WIRE 320 1312 320 1280
WIRE 320 1312 208 1312
WIRE 352 1312 320 1312
WIRE 112 1440 112 1312
WIRE 272 1440 112 1440
WIRE 352 1440 336 1440
FLAG -576 1008 0
FLAG -512 736 INPUT
IOPIN -512 736 Out
FLAG -352 928 0
FLAG -352 752 5V
IOPIN -352 752 Out
FLAG -624 544 5V
IOPIN -624 544 In
FLAG 1456 544 0
FLAG 1232 544 0
FLAG 880 560 0
FLAG 304 192 0
FLAG 320 672 0
FLAG 2096 832 AMPLIFIED
IOPIN 2096 832 Out
FLAG 1776 864 0
FLAG 1776 768 5V
IOPIN 1776 768 In
FLAG 800 896 0
FLAG 1376 880 0
FLAG 1376 800 5V
IOPIN 1376 800 In
FLAG 1664 432 0
FLAG 800 832 5V
IOPIN 800 832 In
FLAG 352 336 OP_AMP_IN
IOPIN 352 336 Out
FLAG 352 464 OP_AMP_OUT
IOPIN 352 464 Out
FLAG 720 880 OP_AMP_IN
IOPIN 720 880 In
FLAG 880 912 OP_AMP_OUT
IOPIN 880 912 In
FLAG 368 816 OP_AMP_IN
IOPIN 368 816 Out
FLAG 368 944 OP_AMP_OUT
IOPIN 368 944 Out
FLAG 352 1312 OP_AMP_IN
IOPIN 352 1312 Out
FLAG 352 1440 OP_AMP_OUT
IOPIN 352 1440 Out
FLAG 320 1168 0
FLAG -128 336 INPUT
IOPIN -128 336 In
SYMBOL voltage -1280 848 R0
WINDOW 123 24 124 Left 2
WINDOW 39 0 0 Left 0
WINDOW 3 24 152 Left 2
SYMATTR Value2 AC 100m
SYMATTR InstName V1
SYMATTR Value SINE(0 200m 50)
SYMBOL njf -672 784 R0
SYMATTR InstName J1
SYMBOL res -640 592 R0
SYMATTR InstName R3
SYMATTR Value 1k
SYMBOL voltage -352 800 R0
WINDOW 123 0 0 Left 0
WINDOW 39 0 0 Left 0
SYMATTR InstName V2
SYMATTR Value 5v
SYMBOL OpAmps\\UniversalOpAmp 1376 848 R0
SYMATTR InstName U1
SYMBOL cap 1056 848 R90
WINDOW 0 0 32 VBottom 2
WINDOW 3 32 32 VTop 2
SYMATTR InstName C2_1
SYMATTR Value 1µ
SYMBOL cap 1200 848 R90
WINDOW 0 0 32 VBottom 2
WINDOW 3 32 32 VTop 2
SYMATTR InstName C2_2
SYMATTR Value 1µ
SYMBOL res 1440 704 R0
SYMATTR InstName k_1_Rf_1
SYMATTR Value 6k
SYMBOL res 1440 560 R0
SYMATTR InstName Rf_1
SYMATTR Value 10k
SYMBOL res 1216 560 R0
SYMATTR InstName R1_1
SYMATTR Value 8k
SYMBOL res 1344 976 R90
WINDOW 0 0 56 VBottom 2
WINDOW 3 32 56 VTop 2
SYMATTR InstName R1_2
SYMATTR Value 8k
SYMBOL OpAmps\\UniversalOpAmp 800 864 R0
SYMATTR InstName U2
SYMBOL res 864 720 R0
SYMATTR InstName k_1_Rf_2
SYMATTR Value 6k
SYMBOL res 864 576 R0
SYMATTR InstName Rf_2
SYMATTR Value 10k
SYMBOL res 80 320 R90
WINDOW 0 0 56 VBottom 2
WINDOW 3 32 56 VTop 2
SYMATTR InstName R2_1
SYMATTR Value 8k
SYMBOL cap 336 448 R90
WINDOW 0 0 32 VBottom 2
WINDOW 3 32 32 VTop 2
SYMATTR InstName C1_2
SYMATTR Value 1n
SYMBOL cap 320 304 R180
WINDOW 0 24 56 Left 2
WINDOW 3 24 8 Left 2
SYMATTR InstName C1_1
SYMATTR Value 1n
SYMBOL res 224 320 R90
WINDOW 0 0 56 VBottom 2
WINDOW 3 32 56 VTop 2
SYMATTR InstName R2_2
SYMATTR Value 8k
SYMBOL res 96 800 R90
WINDOW 0 0 56 VBottom 2
WINDOW 3 32 56 VTop 2
SYMATTR InstName R4
SYMATTR Value 6k
SYMBOL cap 352 928 R90
WINDOW 0 0 32 VBottom 2
WINDOW 3 32 32 VTop 2
SYMATTR InstName C3
SYMATTR Value 10n
SYMBOL cap 336 784 R180
WINDOW 0 24 56 Left 2
WINDOW 3 24 8 Left 2
SYMATTR InstName C4
SYMATTR Value 10n
SYMBOL res 240 800 R90
WINDOW 0 0 56 VBottom 2
WINDOW 3 32 56 VTop 2
SYMATTR InstName R5
SYMATTR Value 6k
SYMBOL res 80 1296 R90
WINDOW 0 0 56 VBottom 2
WINDOW 3 32 56 VTop 2
SYMATTR InstName R8
SYMATTR Value 5k
SYMBOL cap 336 1424 R90
WINDOW 0 0 32 VBottom 2
WINDOW 3 32 32 VTop 2
SYMATTR InstName C7
SYMATTR Value 100n
SYMBOL res 224 1296 R90
WINDOW 0 0 56 VBottom 2
WINDOW 3 32 56 VTop 2
SYMATTR InstName R9
SYMATTR Value 5k
SYMBOL OpAmps\\UniversalOpAmp 1776 832 R0
SYMATTR InstName U7
SYMBOL res 1840 640 R90
WINDOW 0 0 56 VBottom 2
WINDOW 3 32 56 VTop 2
SYMATTR InstName R11
SYMATTR Value 20k
SYMBOL res 1648 432 R0
SYMATTR InstName R10
SYMATTR Value 1k
SYMBOL voltage -1280 1056 R0
WINDOW 123 0 0 Left 0
WINDOW 39 0 0 Left 0
SYMATTR InstName V3
SYMATTR Value SINE(0 100m 5)
SYMBOL cap 336 1280 R180
WINDOW 0 24 56 Left 2
WINDOW 3 24 8 Left 2
SYMATTR InstName C1
SYMATTR Value 100n
SYMBOL LED -128 832 R270
WINDOW 0 72 32 VTop 2
WINDOW 3 0 32 VBottom 2
SYMATTR InstName D1
SYMBOL LED -144 1328 R270
WINDOW 0 72 32 VTop 2
WINDOW 3 0 32 VBottom 2
SYMATTR InstName D2
SYMBOL LED -128 352 R270
WINDOW 0 72 32 VTop 2
WINDOW 3 0 32 VBottom 2
SYMATTR InstName D3
TEXT -416 1016 Left 2 !.tran 0.5
TEXT 296 600 Center 5 ;LOW PASS 20kHz
TEXT 1280 1112 Center 5 ;HIGH PASS 20Hz
TEXT 312 1080 Center 5 ;LOW PASS 2.5kHz
TEXT 296 1576 Center 5 ;LOW PASS 300Hz
TEXT 1904 944 Center 5 ;AMPLIFIER GAIN 21
TEXT -824 1296 Center 5 ;ELECTRET MIC SIM
